<!DOCTYPE html PUBLIC "-//W3C//DTD XHTML 1.0 Transitional//EN" "http://www.w3.org/TR/xhtml1/DTD/xhtml1-transitional.dtd">

<html id="Html1" lang="en" xmlns="http://www.w3.org/1999/xhtml">
	<head id="Head1"><meta http-equiv="Content-type" content="text/html;charset=UTF-8" /><title>
	HYDROGEN EMBRITTLEMENT OF CATHODICALLY PROTECTED DUPLEX STAINLESS IN SEAWATER CONTAINING SRB (OFF 132)
</title>
<!--dc/egms metadata start-->
<meta name="DC.description" content="Grants on the web" />
<meta name="DC.title" content="Grants on the web"/>
<meta name="DC.creator" content="EPSRC author"/>
<meta name="DC.publisher" content="Engineering and Physical Sciences Research Council, Polaris House, North Star Avenue, Swindon, SN2 1ET"/>
<meta name="DC.language" content="en" />
<meta name="eGMS.subject.category" content="epsrc, research council, grant, grants, funds, funding, physical science, engineering, engineer, engineers, graduate, postgraduate, college, university, universities, education, academic, student, students, support, training, proposal, proposals, polaris house, swindon, uk, government, research, counsel, counsil, councils, science, sciences, scientist, scientists" />
<meta name="eGMS.subject.keyword" content="epsrc, research council, grant, grants, funds, funding, physical science, engineering, engineer, engineers, graduate, postgraduate, college, university, universities, education, academic, student, students, support, training, proposal, proposals, polaris house, swindon, uk, government, research, counsel, counsil, councils, science, sciences, scientist, scientists" />
<!--dc/egms metadata end-->
<link href="GOW2.css" type="text/css" rel="stylesheet" />
		<script type="text/javascript" src="gowweb.js"></script>
	</head>
	<body>
		<form name="Form1" method="post" action="NGBOViewGrant.aspx?GrantRef=GR%2fJ41659%2f01" id="Form1">
<input type="hidden" name="__VIEWSTATE" id="__VIEWSTATE" value="/wEPDwUKMjEwMzM3OTA5OA9kFgICAQ9kFgICAw9kFgYCAQ9kFgQCAQ8PZBYEHgdvbmNsaWNrBYABamF2YXNjcmlwdDpkb2N1bWVudC5nZXRFbGVtZW50QnlJZCgnR09XR1BIZWFkZXIxX3R4dFNlYXJjaCcpLnNlbGVjdCgpO2RvY3VtZW50LmdldEVsZW1lbnRCeUlkKCdHT1dHUEhlYWRlcjFfdHh0U2VhcmNoJykuZm9jdXMoKTseCm9ua2V5cHJlc3MFDG89dGhpcy5uYW1lO2QCAw8PZBYCHwFlZAIDDw8WAh4HVmlzaWJsZWdkFgYCAw8PFgQeC05hdmlnYXRlVXJsBWlodHRwOi8vd3d3LmVwc3JjLmFjLnVrL3Jlc2VhcmNoL291cnBvcnRmb2xpby90aGVtZXMvcmVzZWFyY2hpbmZyYXN0cnVjdHVyZS9zdWJ0aGVtZXMvZXF1aXBtZW50L3N1cHBvcnRlZC8eBFRleHQFaWh0dHA6Ly93d3cuZXBzcmMuYWMudWsvcmVzZWFyY2gvb3VycG9ydGZvbGlvL3RoZW1lcy9yZXNlYXJjaGluZnJhc3RydWN0dXJlL3N1YnRoZW1lcy9lcXVpcG1lbnQvc3VwcG9ydGVkL2RkAgUPZBYsZg9kFgICAQ9kFgICAQ8PFgIfBAUMR1IvSjQxNjU5LzAxZGQCAQ9kFgICAQ9kFgICAQ8PFgIfBAV3PHN0cm9uZz5IWURST0dFTiBFTUJSSVRUTEVNRU5UIE9GIENBVEhPRElDQUxMWSBQUk9URUNURUQgRFVQTEVYIFNUQUlOTEVTUyBJTiBTRUFXQVRFUiBDT05UQUlOSU5HIFNSQiAoT0ZGIDEzMik8L3N0cm9uZz5kZAICD2QWAgIBD2QWAgIBDw8WBh8EBUA8YSBocmVmPSdOR0JPVmlld1BlcnNvbi5hc3B4P1BlcnNvbklkPTEzNDgwJz5Sb2JpbnNvbiwgRHIgTUo8L2E+HglCYWNrQ29sb3IKGx4EXyFTQgIIZGQCAw9kFgICAQ9kFgICAQ8WAh8CaGQCBA9kFgICAQ9kFgICAQ8WAh8CaGQCBQ9kFgICAQ9kFgICAQ8WAh8CaGQCBg9kFgICAQ9kFgICAQ8PFgIfBAUoU2NoIG9mIEluZHVzdHJpYWwgYW5kIE1hbnVmYWN0dXJpbmcgU2NpZWRkAgcPZBYCAgEPZBYCAgEPDxYCHwQFFENyYW5maWVsZCBVbml2ZXJzaXR5ZGQCCA9kFgICAQ9kFgICAQ8PFgIfBAUbU3RhbmRhcmQgUmVzZWFyY2ggKFByZS1GRUMpZGQCCQ9kFgYCAQ9kFgICAQ8PFgIfBAUQMDEgTm92ZW1iZXIgMTk5M2RkAgMPZBYCAgEPDxYCHwQFDzMxIE9jdG9iZXIgMTk5NmRkAgUPZBYCAgEPDxYEHwQFBzEyNyw4MDMeB1Rvb2xUaXAFCjEyNyw4MDMuMDBkZAIKD2QWAgIBD2QWAgIBDxYCHgtfIUl0ZW1Db3VudAIBFgICAQ9kFgJmDxUCHUVuZy4gRHluYW1pY3MgJmFtcDsgVHJpYm9sb2d5AGQCCw9kFgICAQ9kFgICAQ8WAh8IAgEWAgIBD2QWAmYPFQIGRW5lcmd5AGQCDA9kFgICAQ9kFgICAQ8WAh8CaGQCDQ9kFgICAQ9kFgQCAQ88KwALAGQCAg8WAh8EBQYmbmJzcDtkAg8PZBYCZg9kFgICAQ8PFgIfBAWWDjEuICBUbyBhc3Nlc3MgdGhlIHN1c2NlcHRpYmlsaXR5IG9mIGNhdGhvZGljYWxseSBwcm90ZWN0ZWQgZHVwbGV4IHN0YWlubGVzcyBzdGVlbHMgdG8gaHlkcm9nZW4gZW1icml0dGxlbWVudCBpbiBzZWF3YXRlciBjb250YWluaW5nIHN1bHBoYXRlIHJlZHVjaW5nIGJhY3RlcmlhLiAgICAgICAgICAgICAgICAgICAgICAgICAgICAgICAgICAgICAgICAgICAgICAgICAgICAgICAgICAgIDIuICBUbyBpbnZlc3RpZ2F0ZSB0aGUgaW5mbHVlbmNlIG9mIHdlbGRpbmcgaW4gdGhlIGVtYnJpdHRlbG1lbnQgb2YgdGhlc2UgYWxsb3lzIGFuZCB0aGUgcmVsYXRpb25zaGlwIGJldHdlZW4gZW1icml0dGxlbWVudCBhbmQgbWljcm9zdHJ1Y3R1cmUuICAgICAgICAgICAgICAgICAgICAgICAgICAgICAgICAgICAgICAgICAgICAgICAgICAgICAgICAgICAgICAgICAgICAgICAgICAgICAzLiAgRGV0ZXJtaW5lIHRoZSBvcHRpbXVtIHBvdGVudGlhbHMgZm9yIHRoZSBwcm90ZWN0aW9uIG9mIHRoZSBkdXBsZXggc3RhaW5sZXNzIHN0ZWVscyBpbiBzZWF3YXRlci4gICAgICAgICAgICAgICAgICAgICAgICAgICAgICAgICAgICAgICAgICAgICAgICAgICAgICAgICAgICAgICAgICAgICAgICAgICAgICAgICAgICAgICAgICAgICAgICAgICAgICAgICAgICAgICAgICAgICAgICAgRHVwbGV4IHN0YWlubGVzcyBzdGVlbHMgb2ZmZXIgc2lnbmlmaWNhbnQgYWR2YW50YWdlcyBvdmVyIG90aGVyIGdyYWRlcyBvZiBzdGVlbCBmb3IgbWFyaW5lIGFwcGxpY2F0aW9ucyB3aXRoIGltcHJvdmVtZW50cyBpbiBib3RoIG1lY2hhbmljYWwgcHJvcGVydGllcyBhbmQgY29ycm9zaW9uIHJlc2lzdGFuY2UuIFRoZXJlIGlzLCBob3dldmVyLCBjb25jZXJuIHRoYXQgdW5kZXIgY2VydGFpbiBjb25kaXRpb25zIHRoZXNlIGFsbG95cyBtYXkgZmFpbCBieSBoeWRyb2dlbiBlbWJyaXR0bGVtZW50IHJlc3VsdGluZyBmcm9tIHRoZSBwcmVzZW5jZSBvZiB0aGUgc3VzY2VwdGlibGUgZmVycml0ZSBwaGFzZS4gQ2F0aG9kaWMgcHJvdGVjaXRvbiBoYXMgYmVlbiBzaG93biB0byBjYXVzZSBoeWRyb2dlbiB0byBiZSBhYnNvcmJlZCBieSBzdGVlbCwgYW5kIHRoaXMgZWZmZWN0IGlzIGVuaGFuY2VkIGNvbnNpZGVyYWJseSB3aGVuIHN1bHBoYXRlIHJlZHVjaW5nIGJhY3RlcmlhIChTUkIpIGFyZSBwcmVzZW50IGluIHRoZSBtYXJpbmUgYmlvZmlsbS4gSW4gdGhpcyBwcm9ncmFtbWUsIGl0IGlzIHByb3Bvc2VkIHRvIGludmVzdGlnYXRlIHRoZSBleHRlbnQgb2YgaHlkcm9nZW4gZW1icml0dGxlbWVudCBvZiBib3RoIGFzIHJlY2VpdmVkIGFuZCB3ZWxkZWQgZHVwbGV4IGFsbG95cyB0aGF0IHJlc3VsdHMgZnJvbSB0aGUgYXBwbGljYXRpb24gb2YgY2F0aG9kaWMgcHJvdGVjdGlvbiBhbmQgZXhwb3N1cmUgdG8gc2Vhd2F0ZXIgY29udGFpbmluZyBTUkIuIFNsb3cgc3RyYWluIHJhdGUgdGVzdGluZyB3aWxsIGJlIHVzZWQgdG8gYXNzZXNzIHRoZSBlbWJyaXR0bGVtZW50LiBUaGUgaHlkcm9nZW4gY29udGVudCBvZiB0aGUgYWxsb3lzIHdpbGwgYmUgZW1hc3VyZWQgYnkgbG93IHRlbXBlcmF0dXJlIHRlY2huaXF1ZXMgdG8gZGV0ZXJtaW5lIHRoZSBjb25jZW50cmF0aW9uIG9mIGRhbWFnaW5nIGRpZmZ1c2libGUgaHlkcm9nZW4uIFRoZXNlIGZpbmRpbmdzIHdpbGwgYmUgY29ycmVsYXRlZCB3aXRoIHRoZSBtaWNyb3N0cnVjdHVyZSBvZiB0aGUgYWxsb3lzLCBhbmQgdXNlZCB0byBkZXRlcm1pbmUgdGhlIG9wdGltdW0gcG90ZW50aWFscyBmb3IgdGhlIHByb3RlY3Rpb24gb2YgZHVwbGV4IHN0YWlubGVzcyBzdGVlbHMgaW4gc2Vhd2F0ZXIuZGQCEQ9kFgJmD2QWAgIBDw8WAh8EBVRUaGlzIGluZm9ybWF0aW9uIGNhbiBub3cgYmUgZm91bmQgb24gR2F0ZXdheSB0byBSZXNlYXJjaCAoR3RSKSBodHRwOi8vZ3RyLnJjdWsuYWMudWtkZAITD2QWAmYPZBYCAgEPDxYCHwQFVFRoaXMgaW5mb3JtYXRpb24gY2FuIG5vdyBiZSBmb3VuZCBvbiBHYXRld2F5IHRvIFJlc2VhcmNoIChHdFIpIGh0dHA6Ly9ndHIucmN1ay5hYy51a2RkAhUPZBYCZg9kFgICAQ8WAh8IAgEWAgIBD2QWAmYPFQNUVGhpcyBpbmZvcm1hdGlvbiBjYW4gbm93IGJlIGZvdW5kIG9uIEdhdGV3YXkgdG8gUmVzZWFyY2ggKEd0UikgaHR0cDovL2d0ci5yY3VrLmFjLnVrAABkAhcPZBYCZg9kFgICAQ8PFgIfBAVUVGhpcyBpbmZvcm1hdGlvbiBjYW4gbm93IGJlIGZvdW5kIG9uIEdhdGV3YXkgdG8gUmVzZWFyY2ggKEd0UikgaHR0cDovL2d0ci5yY3VrLmFjLnVrZGQCGA9kFgICAQ9kFgICAQ8WAh8EBQYmbmJzcDtkAhkPZBYCAgEPZBYCAgEPFgIfBAUGJm5ic3A7ZAIaD2QWAgIBD2QWAgIBDxYCHwQF2AE8YSAgaHJlZj0naHR0cDovL3d3dy5jcmFuZmllbGQuYWMudWsgICAgICAgICAgICAgICAgICAgICAgICAgICAgICAgICAgICAgICAgICAgICAgICAgICAgICAgICAgICAgICAgICAgICAgICAgICc+aHR0cDovL3d3dy5jcmFuZmllbGQuYWMudWsgICAgICAgICAgICAgICAgICAgICAgICAgICAgICAgICAgICAgICAgICAgICAgICAgICAgICAgICAgICAgICAgICAgICAgICAgIDwvYT5kAgcPDxYGHgpSZXBvcnROYW1lBQlWaWV3R3JhbnQeDVBhcmFtZXRlck5hbWUVAgpXZWJBZGRyZXNzDkdyYW50UmVmTnVtYmVyHg5QYXJhbWV0ZXJWYWx1ZRUCP2h0dHA6Ly9nb3cuZXBzcmMuYWMudWsvTkdCT1ZpZXdHcmFudC5hc3B4P0dyYW50UmVmPUdSL0o0MTY1OS8wMQxHUi9KNDE2NTkvMDFkFgJmD2QWAmYPZBYEAgMPEGQPFgECBhYBEGRkaBYBZmQCBQ8PZBYCHwFlZAIFDw8WAh8CaGRkZFIZqT9EdfWaRzuQycaQIXOUzSCx" />

<input type="hidden" name="__EVENTVALIDATION" id="__EVENTVALIDATION" value="/wEWAwL8g5+bAgLQvN++DAKT/OCVA8tGo7+0hbvPfaYKtMHHYEPO9dK5" />
			
<script type="text/javascript">

  var _gaq = _gaq || [];
  _gaq.push(['_setAccount', 'UA-12650009-3']);
  _gaq.push(['_trackPageview']);

  (function() {
    var ga = document.createElement('script'); ga.type = 'text/javascript'; ga.async = true;
    ga.src = ('https:' == document.location.protocol ? 'https://ssl' : 'http://www') + '.google-analytics.com/ga.js';
    var s = document.getElementsByTagName('script')[0]; s.parentNode.insertBefore(ga, s);
  })();

</script>
<div class="header"><a href="http://www.epsrc.ac.uk"><img src="http://gow.epsrc.ac.uk//images/epsrclogo.png" alt="EPSRC logo" style="margin-top: 10px;" /></a>
<div class="searchboxposition"><label for="GOWGPHeader1_txtSearch" id="GOWGPHeader1_lblSearch" class="HiddenLabel">Search this site</label>
<input name="GOWGPHeader1$txtSearch" type="text" value="GoW Search" id="GOWGPHeader1_txtSearch" class="SearchText" onclick="javascript:document.getElementById('GOWGPHeader1_txtSearch').select();document.getElementById('GOWGPHeader1_txtSearch').focus();" onkeypress="o=this.name;" />
<label for="GOWGPHeader1_btnSearch" id="GOWGPHeader1_Label1" class="HiddenLabel">Search this site</label>
<input type="submit" name="GOWGPHeader1$btnSearch" value="Go" onclick="javascript:WebForm_DoPostBackWithOptions(new WebForm_PostBackOptions(&quot;GOWGPHeader1$btnSearch&quot;, &quot;&quot;, true, &quot;&quot;, &quot;&quot;, false, false))" id="GOWGPHeader1_btnSearch" class="SearchButton" onkeypress="" /></div>
</div>
<ul id="topnav">
	<li><a id="aHome" class="menubox1off" href="http://www.epsrc.ac.uk">Home</a></li>
	<li><a id="aGoWHome" class="menubox1off" href="http://gow.epsrc.ac.uk/NGBODefault.aspx">GoW Home</a></li>
	<li><a id="aBack" class="menubox1off" href="javascript:history.go(-1)">Back</a></li>
	<li class="menuboxspacer">&nbsp;</li>
	
	<li><a class="menubox1off" href="http://gow.epsrc.ac.uk/NGBOListResearchAreas.aspx">Research Areas</a></li>
	<li><a class="menubox1off" href="http://gow.epsrc.ac.uk/NGBOListTopics.aspx">Topic</a></li>
	<li><a class="menubox1off" href="http://gow.epsrc.ac.uk/NGBOListSectors.aspx">Sector</a></li>
	<li><a class="menubox1off" href="http://gow.epsrc.ac.uk/NGBOListSchemes.aspx">Scheme</a></li>
	<li><a class="menubox1off" href="http://gow.epsrc.ac.uk/NGBOChooseRegion.aspx">Region</a></li>
	<li><a class="menubox1off" href="http://gow.epsrc.ac.uk/NGBOListThemes.aspx">Theme</a></li>
	<li><a class="menubox1off" href="http://gow.epsrc.ac.uk/NGBOListOrganisations.aspx">Organisation</a></li>
	<li><a class="menubox1off" href="http://gow.epsrc.ac.uk/NGBOListPartners.aspx">Partners</a></li>
</ul>
<div class="clearfloat"></div>
			<div id="pnlFound">
	
				<h1>Details of Grant&nbsp;</h1> 
				<p>
                    
                    
                </p>
				<table id="tblFound" cellspacing="0" cellpadding="0" width="100%" class="bordered" summary="grant details">
		<tr>
			<td class="DetailName" style="width:20%">EPSRC Reference:</td>
			<td class="DetailValueAlt" colspan="5"> 
							<span id="lblGrantReference" class="DetailValueAlt">GR/J41659/01</span></td>
		</tr>
		<tr>
			<td class="DetailName">Title:</td>
			<td colspan="5">
							<span id="lblTitle" class="DetailValue"><strong>HYDROGEN EMBRITTLEMENT OF CATHODICALLY PROTECTED DUPLEX STAINLESS IN SEAWATER CONTAINING SRB (OFF 132)</strong></span></td>
		</tr>
		<tr>
			<td class="DetailName" style="width:20%">Principal Investigator:</td>
			<td colspan="5" class="borderedAlt">
							<a id="hlPrincipalInvestigator"><a href='NGBOViewPerson.aspx?PersonId=13480'>Robinson, Dr MJ</a></a></td>
		</tr>
		<tr>
			<td class="DetailName" style="width:20%">Other Investigators:</td>
			<td class="bordered" colspan="5" style="padding-left: 3px">
                            
                           </td>
		</tr>
		<tr>
			<td class="DetailName" style="width:20%">Researcher Co-Investigators:</td>
			<td colspan="5" class="borderedAlt" style="padding-left: 3px">
                            
						</td>
		</tr>
		<tr>
			<td class="DetailName" style="width:20%">Project Partners:</td>
			<td colspan="5" class="bordered" style="padding-left: 3px">
                            
							</td>
		</tr>
		<tr>
			<td class="DetailName" style="width:20%">Department:</td>
			<td class="DetailValueAlt" colspan="5">
							<span id="lblDepartment" class="DetailValueAlt">Sch of Industrial and Manufacturing Scie</span></td>
		</tr>
		<tr>
			<td class="DetailName" style="width:20%">Organisation:</td>
			<td class="DetailValue" colspan="5">
							<span id="lblOrganisation" class="DetailValue">Cranfield University</span></td>
		</tr>
		<tr>
			<td class="DetailName" style="width:20%">Scheme:</td>
			<td colspan="5" class="DetailValueAlt">
							<span id="lblAwardType" class="DetailValueAlt">Standard Research (Pre-FEC)</span></td>
		</tr>
		<tr>
			<td class="DetailName" style="width:20%">Starts:</td>
			<td class="DetailValue">
							<span id="lblStarts" class="DetailValue">01 November 1993</span></td>
			<td class="DetailName" style="text-align:center;">Ends:</td>
			<td class="DetailValue">
							<span id="lblEnds" class="DetailValue">31 October 1996</span></td>
			<td class="DetailName" style="text-align:center;">Value (£):</td>
			<td class="DetailValue">
							<span id="lblValue" title="127,803.00" class="DetailValue">127,803</span>
							</td>
		</tr>
		<tr>
			<td class="DetailName" style="width:20%">EPSRC Research Topic Classifications:</td>
			<td colspan="5" class="borderedAlt" style="padding-left: 3px">
						     
                                    <table width="100%" class="bordered" cellspacing="0" cellpadding="0" summary="topic classifications"> 
                                
                                  <tr>
                                    <td style="width:50%" class="DetailValue"> Eng. Dynamics &amp; Tribology</td>
                                    <td class="DetailValue"> </td>
                                  </tr>
                                
                                    </table>
                                
						</td>
		</tr>
		<tr>
			<td class="DetailName" style="width:20%;">EPSRC Industrial Sector Classifications:</td>
			<td colspan="5" class="bordered" style="padding-left: 3px">
						     
                                  <table width="100%" class="bordered" cellspacing="0" cellpadding="0" summary="sector classifications"> 
                                
                                  <tr>
                                    <td style="width:50%;" class="DetailValueAlt"> Energy</td>
                                    <td class="DetailValueAlt"> </td>
                                  </tr>
                                
                                    </table>
                                
						</td>
		</tr>
		<tr>
			<td class="DetailName" style="width:20%;"> Related Grants:</td>
			<td colspan="5" class="borderedAlt" style="padding-left: 3px">
                            
							
							
						</td>
		</tr>
		<tr>
			<td class="DetailName" style="width:20%;">Panel History:</td>
			<td colspan="5" class="bordered">
							&nbsp;</td>
		</tr>
		<tr>
			<td colspan="6" class="DetailTitle" style="text-align:center;">
                            Summary on Grant Application Form</td>
		</tr>
		<tr>
			<td colspan="6" class="DetailValue" style="padding:5px;">
                        <span id="lblAbstract">1.  To assess the susceptibility of cathodically protected duplex stainless steels to hydrogen embrittlement in seawater containing sulphate reducing bacteria.                                                            2.  To investigate the influence of welding in the embrittelment of these alloys and the relationship between embrittlement and microstructure.                                                                             3.  Determine the optimum potentials for the protection of the duplex stainless steels in seawater.                                                                                                                         Duplex stainless steels offer significant advantages over other grades of steel for marine applications with improvements in both mechanical properties and corrosion resistance. There is, however, concern that under certain conditions these alloys may fail by hydrogen embrittlement resulting from the presence of the susceptible ferrite phase. Cathodic proteciton has been shown to cause hydrogen to be absorbed by steel, and this effect is enhanced considerably when sulphate reducing bacteria (SRB) are present in the marine biofilm. In this programme, it is proposed to investigate the extent of hydrogen embrittlement of both as received and welded duplex alloys that results from the application of cathodic protection and exposure to seawater containing SRB. Slow strain rate testing will be used to assess the embrittlement. The hydrogen content of the alloys will be emasured by low temperature techniques to determine the concentration of damaging diffusible hydrogen. These findings will be correlated with the microstructure of the alloys, and used to determine the optimum potentials for the protection of duplex stainless steels in seawater.</span>
                        </td>
		</tr>
		<tr>
			<td colspan="6" class="DetailTitle" style="text-align:center;">
                            Key Findings</td>
		</tr>
		<tr>
			<td colspan="6" class="DetailValue" style="padding:5px;">
                        <span id="lblKeyFindings">This information can now be found on Gateway to Research (GtR) http://gtr.rcuk.ac.uk</span>
                        </td>
		</tr>
		<tr>
			<td colspan="6" class="DetailTitle" style="text-align:center;">
                            Potential use in non-academic contexts</td>
		</tr>
		<tr>
			<td colspan="6" class="DetailValue" style="padding:5px;">
                        <span id="lblNonAcademicUses">This information can now be found on Gateway to Research (GtR) http://gtr.rcuk.ac.uk</span>
                        </td>
		</tr>
		<tr>
			<td colspan="6" class="DetailTitle" style="text-align:center;">
                            Impacts</td>
		</tr>
		<tr>
			<td colspan="6" class="DetailValue" style="padding:5px;">
                            
                                    <table width="100%" cellspacing="0" cellpadding="0" class="bordered" summary="Impacts"> 
                                
                                  <tr style="margin-top: 2px; border-top: double 3px;"></tr>
                                  
                                  <tr>
                                    <td class="DetailName" style="font-weight: bold; ">Description</td>
                                    <td style="width:90%;FONT-WEIGHT: normal; " > This information can now be found on Gateway to Research (GtR) http://gtr.rcuk.ac.uk</td>
                                  </tr>
                                  <tr>
                                    <td class="DetailName" style="font-weight: bold;">Summary</td>
                                    <td style="width:90%;FONT-WEIGHT: normal;" > </td>
                                  </tr>
                                  <tr>
                                    <td class="DetailName" style="font-weight: bold;">Date Materialised</td>
                                    <td style="width:90%;FONT-WEIGHT: normal;" > </td>
                                  </tr>
                                  <tr style="margin-top: 2px; border-top: double 4px;"></tr>
                                
                                    </table>
                                   
                                
                           
                           
						</td>
		</tr>
		<tr>
			<td colspan="6" class="DetailTitle" style="text-align:center;">
                            Sectors submitted by the Researcher</td>
		</tr>
		<tr>
			<td colspan="6" class="DetailValue" style="padding:5px;">
                        <span id="lblResearchSectors">This information can now be found on Gateway to Research (GtR) http://gtr.rcuk.ac.uk</span>
                        </td>
		</tr>
		<tr>
			<td class="DetailName" style="width:20%;">Project URL:</td>
			<td colspan="5" class="DetailValueAlt">
							&nbsp;</td>
		</tr>
		<tr>
			<td class="DetailName" style="width:20%;">Further Information:</td>
			<td colspan="5" class="DetailValueAlt">
							&nbsp;</td>
		</tr>
		<tr>
			<td class="DetailName" style="width:20%;">Organisation Website:</td>
			<td colspan="5" class="DetailValue">
							<a  href='http://www.cranfield.ac.uk                                                                          '>http://www.cranfield.ac.uk                                                                          </a></td>
		</tr>
	</table>
	
				
   		        <div class="rightfloat"></div>
                <div class="clearfloat"></div>
    	
			
</div>
				
			
		</form>
	</body>
</html>
